examples/data/TurkishGrid/caseTurkish_dataset.m
function mpc = caseTurkish_dataset
%CASETURKISH_DATASET

%% MATPOWER Case Format : Version 2
mpc.version = '2';

%%-----  Power Flow Data  -----%%
%% system MVA base
mpc.baseMVA = 100;

%% bus data
%	bus_i	type	Pd	Qd	Gs	Bs	area	Vm	Va	baseKV	zone	Vmax	Vmin
mpc.bus = [
	1	3	219.154331	0	0	0	1	1.015	0	345	1	1.06	0.94;
	2	1	394.978708	0	0	0	1	0.99959	-3.0384	345	1	1.06	0.94;
	3	1	278.175315	0	0	0	1	0.9986	-3.3479	345	1	1.06	0.94;
	4	1	284.072652	0	0	0	1	0.98828	-4.081	345	1	1.06	0.94;
	5	1	283.619069	0	0	0	1	0.99354	-3.2938	345	1	1.06	0.94;
	6	1	522.153592	0	0	0	1	0.98613	-4.1776	345	1	1.06	0.94;
	7	1	468.232823	0	0	0	1	0.99274	-3.4892	345	1	1.06	0.94;
	8	1	167.274239	0	0	0	1	1.0375	1.0439	345	1	1.06	0.94;
	9	1	138.491147	0	0	0	1	1.0112	3.2248	345	1	1.06	0.94;
	10	1	87.4706487	0	0	0	1	1.0185	5.1692	345	1	1.06	0.94;
	11	1	461.494974	0	0	0	1	1.0063	3.4083	345	1	1.06	0.94;
	12	1	438.945173	0	0	0	1	0.99229	-14.5298	345	1	1.06	0.94;
	13	1	114.069915	0	0	0	1	0.98974	-8.9867	345	1	1.06	0.94;
	14	1	24.017981	0	0	0	1	0.99946	-6.1963	345	1	1.06	0.94;
	15	1	30.6709158	0	0	0	1	1.0161	-4.1662	345	1	1.06	0.94;
	16	1	356.808039	0	0	0	1	1.0045	-8.8076	345	1	1.06	0.94;
	17	1	627.318123	0	0	0	1	1.0001	-2.2893	345	1	1.06	0.94;
	18	1	9.12980952	0	0	0	1	1.0137	-1.3478	345	1	1.06	0.94;
	19	1	319.346962	0	0	0	1	1.002	1.3987	345	1	1.06	0.94;
	20	1	359.157008	0	0	0	1	1.0058	-1.6989	345	1	1.06	0.94;
	21	1	4.09114583	0	0	0	1	1.0232	-0.64798	345	1	1.06	0.94;
	22	1	112.784412	0	0	0	1	1.0052	-1.1839	345	1	1.06	0.94;
	23	1	76.1390191	0	0	0	1	1.0125	4.4696	345	1	1.06	0.94;
	24	1	11.9513035	0	0	0	1	0.99443	0.95642	345	1	1.06	0.94;
	25	1	59.8530695	0	0	0	1	1.0272	3.1932	345	1	1.06	0.94;
	26	1	225.010884	0	0	0	1	1.0209	6.5875	345	1	1.06	0.94;
	27	1	61.7796714	0	0	0	1	1.0115	-6.8063	345	1	1.06	0.94;
	28	1	21.187379	0	0	0	1	1.017	-6.9836	345	1	1.06	0.94;
	29	1	14.7118862	0	0	0	1	1.0246	-1.1787	345	1	1.06	0.94;
	30	1	93.9029139	0	0	0	1	0.99381	-2.3119	345	1	1.06	0.94;
	31	1	115.900461	0	0	0	1	0.96379	-5.2821	345	1	1.06	0.94;
	32	1	149.77532	0	0	0	1	1.0088	-0.24727	345	1	1.06	0.94;
	33	2	3.32720558	0	0	0	1	1.0129	3.3489	345	1	1.06	0.94;
	34	1	275.861054	0	0	0	1	1.0109	2.5751	345	1	1.06	0.94;
	35	1	37.1361157	0	0	0	1	1.0885	-10.3928	345	1	1.06	0.94;
	36	2	19.9401303	0	0	0	1	1.01	-1.2578	345	1	1.06	0.94;
	37	2	78.2467597	0	0	0	1	1.02	5.907	345	1	1.06	0.94;
	38	2	39.6373253	0	0	0	1	1.03	-0.7999	345	1	1.06	0.94;
	39	2	324.030124	0	0	0	1	1.02	0.98935	345	1	1.06	0.94;
	40	2	354.589877	0	0	0	1	1.02	1.1259	345	1	1.06	0.94;
	41	1	717.809611	0	0	0	1	1.02	0.98	345	1	1.06	0.94;
	42	2	72.5312461	0	0	0	1	1.01	1.8809	345	1	1.06	0.94;
	43	2	80.5330494	0	0	0	1	1.02	6.14	345	1	1.06	0.94;
	44	2	99.7514794	0	0	0	1	1.02	5.363	345	1	1.06	0.94;
	45	1	421.419875	0	0	0	1	1.01	5.8174	345	1	1.06	0.94;
	46	2	37.1951225	0	0	0	1	1.03	4.8946	345	1	1.06	0.94;
	47	2	25.640741	0	0	0	1	1.03	5.5937	345	1	1.06	0.94;
	48	2	112.64011	0	0	0	1	1.01	5.8174	345	1	1.06	0.94;
	49	2	194.077376	0	0	0	1	1.02	-12.0221	345	1	1.06	0.94;
	50	2	515.698881	0	0	0	1	1.01	-2.4417	345	1	1.06	0.94;
	51	2	363.873428	0	0	0	1	1.0117	1.2016	345	1	1.06	0.94;
	52	2	10.5038813	0	0	0	1	1.0011	0.68186	345	1	1.06	0.94;
	53	1	274.707865	0	0	0	1	1.0111	-0.26222	345	1	1.06	0.94;
	54	2	463.941096	0	0	0	1	1.0111	1.3647	345	1	1.06	0.94;
	55	1	161.112992	0	0	0	1	1.0112	-0.56532	345	1	1.06	0.94;
	56	2	37.6992015	0	0	0	1	1.02	-0.21608	345	1	1.06	0.94;
	57	2	21.9917375	0	0	0	1	1.02	0.91455	345	1	1.06	0.94;
	58	2	3.47247939	0	0	0	1	1.041	2.9342	345	1	1.06	0.94;
	59	2	128.244271	0	0	0	1	1.0412	-0.46674	345	1	1.06	0.94;
	60	2	39.5661546	0	0	0	1	1.0111	5.1852	345	1	1.06	0.94;
	61	2	13.2393055	0	0	0	1	1.0112	7.8823	345	1	1.06	0.94;
];

%% generator data
%	bus	Pg	Qg	Qmax	Qmin	Vg	mBase	status	Pmax	Pmin	Pc1	Pc2	Qc1min	Qc1max	Qc2min	Qc2max	ramp_agc	ramp_10	ramp_30	ramp_q	apf
mpc.gen = [
	1	610	0	100	-100	1.03709623	100	1	732	0	0	0	0	0	0	0	0	0	0	0	0;
	33	1125	0	100	-100	1.10965947	100	1	1350	0	0	0	0	0	0	0	0	0	0	0	0;
	36	394	0	100	-100	0.960183689	100	1	472.8	0	0	0	0	0	0	0	0	0	0	0	0;
	37	262	0	100	-100	0.991453745	100	1	314.4	0	0	0	0	0	0	0	0	0	0	0	0;
	38	445	0	100	-100	1.23732874	100	1	534	0	0	0	0	0	0	0	0	0	0	0	0;
	39	9975	0	100	-100	0.952607898	100	1	11970	0	0	0	0	0	0	0	0	0	0	0	0;
	40	365	0	100	-100	1.09463409	100	1	438	0	0	0	0	0	0	0	0	0	0	0	0;
	42	156	0	100	-100	1.08181616	100	1	187.2	0	0	0	0	0	0	0	0	0	0	0	0;
	43	576	0	100	-100	1.15889709	100	1	691.2	0	0	0	0	0	0	0	0	0	0	0	0;
	44	1449	0	100	-100	1.0526012	100	1	1738.8	0	0	0	0	0	0	0	0	0	0	0	0;
	46	350	0	100	-100	0.753480245	100	1	420	0	0	0	0	0	0	0	0	0	0	0	0;
	47	297	0	100	-100	0.914747206	100	1	356.4	0	0	0	0	0	0	0	0	0	0	0	0;
	48	182	0	100	-100	1.05117354	100	1	218.4	0	0	0	0	0	0	0	0	0	0	0	0;
	49	250	0	100	-100	1.02577749	100	1	300	0	0	0	0	0	0	0	0	0	0	0	0;
	50	1032	0	100	-100	1.19624474	100	1	1238.4	0	0	0	0	0	0	0	0	0	0	0	0;
	51	262	0	100	-100	1.14063149	100	1	314.4	0	0	0	0	0	0	0	0	0	0	0	0;
	52	167	0	100	-100	1.04968337	100	1	200.4	0	0	0	0	0	0	0	0	0	0	0	0;
	54	1704	0	100	-100	1.00828306	100	1	2044.8	0	0	0	0	0	0	0	0	0	0	0	0;
	56	416	0	100	-100	0.845152214	100	1	499.2	0	0	0	0	0	0	0	0	0	0	0	0;
	57	1320	0	100	-100	1.18631596	100	1	1584	0	0	0	0	0	0	0	0	0	0	0	0;
	58	840	0	100	-100	1.01340266	100	1	1008	0	0	0	0	0	0	0	0	0	0	0	0;
	59	273	0	100	-100	0.845399743	100	1	327.6	0	0	0	0	0	0	0	0	0	0	0	0;
	60	200	0	100	-100	1.04332824	100	1	240	0	0	0	0	0	0	0	0	0	0	0	0;
	61	536.66	0	100	-100	1.01029542	100	1	643.992	0	0	0	0	0	0	0	0	0	0	0	0;
];

%% branch data
%	fbus	tbus	r	x	b	rateA	rateB	rateC	ratio	angle	status	angmin	angmax
mpc.branch = [
	1	4	9.22157865e-05	0.00163383298	0	750	0	0	0	0	1	-360	360;
	1	38	0.000110995619	0.00135974304	0	750	0	0	0	0	1	-360	360;
	2	3	9.1444357e-05	0.00110278373	0	750	0	0	0	0	1	-360	360;
	2	5	0.000100075576	0.00126552463	0	750	0	0	0	0	1	-360	360;
	2	38	9.06241423e-05	0.00126552463	0	750	0	0	0	0	1	-360	360;
	2	54	9.31844032e-05	0.00141970021	0	750	0	0	0	0	1	-360	360;
	3	4	9.73986057e-05	0.0010856531	0	750	0	0	0	0	1	-360	360;
	3	38	9.77120464e-05	0.00120556745	0	750	0	0	0	0	1	-360	360;
	3	39	9.47518701e-05	0.00108993576	0	750	0	0	0	0	1	-360	360;
	4	5	0.000111283185	0.00118415418	0	1000	0	0	0	0	1	-360	360;
	4	6	0.000105501392	0.00115845824	0	750	0	0	0	0	1	-360	360;
	5	6	0.000118551474	0.00108137045	0	750	0	0	0	0	1	-360	360;
	5	7	9.72270121e-05	0.00108137045	0	750	0	0	0	0	1	-360	360;
	5	54	0.000110666308	0.00144111349	0	1000	0	0	0	0	1	-360	360;
	6	7	7.90076115e-05	0.00112847966	0	500	0	0	0	0	1	-360	360;
	7	20	0.000106384838	0.00187794433	0	1000	0	0	0	0	1	-360	360;
	7	40	0.000103714655	0.00154817987	0	500	0	0	0	0	1	-360	360;
	7	53	9.6258207e-05	0.0013640257	0	500	0	0	0	0	1	-360	360;
	8	40	0.000106953483	0.00174089936	0	750	0	0	0	0	1	-360	360;
	8	43	0.000108776287	0.00182655246	0	750	0	0	0	0	1	-360	360;
	9	41	0.000110336056	0.00145824411	0	500	0	0	0	0	1	-360	360;
	9	43	0.000104197913	0.00126980728	0	500	0	0	0	0	1	-360	360;
	10	11	0.000106010692	0.00127837259	0	750	0	0	0	0	1	-360	360;
	10	43	9.32598169e-05	0.00112847966	0	500	0	0	0	0	1	-360	360;
	10	45	8.90482154e-05	0.00118843683	0	500	0	0	0	0	1	-360	360;
	10	44	9.73238327e-05	0.001	0	1000	0	0	0	0	1	-360	360;
	11	47	0.000101865504	0.00142826552	0	750	0	0	0	0	1	-360	360;
	12	34	0.000109509447	0.00174518201	0	750	0	0	0	0	1	-360	360;
	12	49	9.20948126e-05	0.00131691649	0	500	0	0	0	0	1	-360	360;
	13	14	9.51052202e-05	0.00128265525	0	500	0	0	0	0	1	-360	360;
	13	35	0.000129744739	0.00252890792	0	500	0	0	0	0	1	-360	360;
	14	15	9.37741464e-05	0.00130406852	0	500	0	0	0	0	1	-360	360;
	14	50	0.00011920303	0.00150535332	0	750	0	0	0	0	1	-360	360;
	15	59	0.000109611489	0.00125695931	0	500	0	0	0	0	1	-360	360;
	16	18	9.44219684e-05	0.00195931478	0	500	0	0	0	0	1	-360	360;
	16	35	9.89344485e-05	0.00140256959	0	500	0	0	0	0	1	-360	360;
	17	19	9.78483875e-05	0.00215203426	0	500	0	0	0	0	1	-360	360;
	17	20	0.000104734897	0.00113704497	0	500	0	0	0	0	1	-360	360;
	17	52	0.00011365641	0.00170663812	0	500	0	0	0	0	1	-360	360;
	18	57	8.36219628e-05	0.00235760171	0	1000	0	0	0	0	1	-360	360;
	19	33	0.000120237289	0.00215203426	0	500	0	0	0	0	1	-360	360;
	19	59	0.000107777893	0.00161670236	0	500	0	0	0	0	1	-360	360;
	20	18	9.45109808e-05	0.00225910064	0	1000	0	0	0	0	1	-360	360;
	20	25	9.87398864e-05	0.00224197002	0	750	0	0	0	0	1	-360	360;
	20	36	0.000102995804	0.0013254818	0	500	0	0	0	0	1	-360	360;
	20	54	0.000102961712	0.00192933619	0	1000	0	0	0	0	1	-360	360;
	20	55	0.000112007829	0.00172805139	0	500	0	0	0	0	1	-360	360;
	20	59	0.000110901728	0.003	0	750	0	0	0	0	1	-360	360;
	21	25	9.64129677e-05	0.00191648822	0	750	0	0	0	0	1	-360	360;
	21	55	9.87007237e-05	0.00187366167	0	750	0	0	0	0	1	-360	360;
	22	55	0.000107337375	0.0012012848	0	500	0	0	0	0	1	-360	360;
	23	25	0.000101203316	0.00153104925	0	500	0	0	0	0	1	-360	360;
	23	37	0.000111363313	0.00139828694	0	750	0	0	0	0	1	-360	360;
	23	60	9.31322688e-05	0.00107280514	0	500	0	0	0	0	1	-360	360;
	24	27	0.000104716829	0.00294004283	0	1000	0	0	0	0	1	-360	360;
	24	60	0.000102883425	0.00188222698	0	1000	0	0	0	0	1	-360	360;
	25	26	0.000113918548	0.00169807281	0	750	0	0	0	0	1	-360	360;
	25	37	8.65449799e-05	0.00143254818	0	500	0	0	0	0	1	-360	360;
	26	61	0.000100007474	0.00125267666	0	750	0	0	0	0	1	-360	360;
	27	28	0.000100534948	0.00141970021	0	750	0	0	0	0	1	-360	360;
	27	29	7.65809481e-05	0.00185653105	0	750	0	0	0	0	1	-360	360;
	29	33	0.000112480951	0.00164239829	0	750	0	0	0	0	1	-360	360;
	30	31	0.000128092319	0.00138972163	0	750	0	0	0	0	1	-360	360;
	30	58	9.76781514e-05	0.00139400428	0	750	0	0	0	0	1	-360	360;
	31	32	0.000102870321	0.00219486081	0	750	0	0	0	0	1	-360	360;
	32	57	9.53539551e-05	0.00126552463	0	750	0	0	0	0	1	-360	360;
	33	58	0.000103843178	0.0013640257	0	500	0	0	0	0	1	-360	360;
	33	58	9.62017248e-05	0.00129122056	0	500	0	0	0	0	1	-360	360;
	33	61	9.89822177e-05	0.00158672377	0	750	0	0	0	0	1	-360	360;
	34	45	0.000116181511	0.00161670236	0	750	0	0	0	0	1	-360	360;
	34	46	9.15277012e-05	0.00150535332	0	750	0	0	0	0	1	-360	360;
	35	49	9.42411682e-05	0.00135546039	0	500	0	0	0	0	1	-360	360;
	35	51	9.92408687e-05	0.00229764454	0	500	0	0	0	0	1	-360	360;
	36	53	9.86752841e-05	0.0015738758	0	500	0	0	0	0	1	-360	360;
	40	41	0.000114393097	0.00103426124	0	500	0	0	0	0	1	-360	360;
	40	53	0.000120312629	0.00160813704	0	500	0	0	0	0	1	-360	360;
	41	42	9.02179839e-05	0.0013640257	0	500	0	0	0	0	1	-360	360;
	42	51	9.35897633e-05	0.00117987152	0	500	0	0	0	0	1	-360	360;
	45	46	0.000105204757	0.00161670236	0	750	0	0	0	0	1	-360	360;
	45	51	9.6193e-05	0.00220770878	0	500	0	0	0	0	1	-360	360;
	46	47	0.000119928519	0.00116702355	0	500	0	0	0	0	1	-360	360;
	46	48	0.000116358702	0.00104710921	0	500	0	0	0	0	1	-360	360;
	50	56	0.000105590189	0.001248394	0	750	0	0	0	0	1	-360	360;
	50	57	0.000105636376	0.00142826552	0	750	0	0	0	0	1	-360	360;
	51	52	9.66160338e-05	0.001248394	0	500	0	0	0	0	1	-360	360;
	52	53	0.000107636474	0.00141970021	0	500	0	0	0	0	1	-360	360;
	53	54	0.000111274423	0.00104282655	0	750	0	0	0	0	1	-360	360;
	54	55	0.000101415712	0.00130835118	0	750	0	0	0	0	1	-360	360;
	56	57	0.000119281341	0.00125267666	0	500	0	0	0	0	1	-360	360;
	57	58	0.000106706379	0.00171948608	0	500	0	0	0	0	1	-360	360;
	57	59	9.88988876e-05	0.00174946467	0	750	0	0	0	0	1	-360	360;
];

%%-----  OPF Data  -----%%
%% generator cost data
%	1	startup	shutdown	n	x1	y1	...	xn	yn
%	2	startup	shutdown	n	c(n-1)	...	c0
mpc.gencost = [
	2	0	0	3	0.01	0.3	0.2;
	2	0	0	3	0.01	0.3	0.2;
	2	0	0	3	0.01	0.3	0.2;
	2	0	0	3	0.01	0.3	0.2;
	2	0	0	3	0.01	0.3	0.2;
	2	0	0	3	0.01	0.3	0.2;
	2	0	0	3	0.01	0.3	0.2;
	2	0	0	3	0.01	0.3	0.2;
	2	0	0	3	0.01	0.3	0.2;
	2	0	0	3	0.01	0.3	0.2;
	2	0	0	3	0.01	0.3	0.2;
	2	0	0	3	0.01	0.3	0.2;
	2	0	0	3	0.01	0.3	0.2;
	2	0	0	3	0.01	0.3	0.2;
	2	0	0	3	0.01	0.3	0.2;
	2	0	0	3	0.01	0.3	0.2;
	2	0	0	3	0.01	0.3	0.2;
	2	0	0	3	0.01	0.3	0.2;
	2	0	0	3	0.01	0.3	0.2;
	2	0	0	3	0.01	0.3	0.2;
	2	0	0	3	0.01	0.3	0.2;
	2	0	0	3	0.01	0.3	0.2;
	2	0	0	3	0.01	0.3	0.2;
	2	0	0	3	0.01	0.3	0.2;
];
